.subckt noise_source_1 in out

** NOISE SOURCE **
i out in PWL file=/Users/torque/programs/meng-thesis/tapers/.spice-daemon-data/module_noise_source_1.csv

.ends noise_source_1

