Version 4
SHEET 1 880 704
TEXT -304 688 Left 2 !.inc http://thesis.itstorque.com/qnn.lib
TEXT -320 568 Left 2 !.tran 1
