Version 4
SHEET 1 1604 928
WIRE 864 672 848 672
WIRE 960 672 944 672
WIRE 1136 672 1056 672
WIRE 1360 672 1216 672
WIRE 1552 672 1456 672
WIRE 1568 672 1552 672
FLAG 848 592 0
FLAG 1552 768 0
FLAG 1552 752 0
FLAG 1408 528 0
FLAG 1008 816 0
SYMBOL my_snspi 1216 672 R90
SYMATTR InstName U1
SYMBOL qnn-spice/experimental-setup/biasTee 1008 672 R270
SYMATTR InstName U2
SYMBOL qnn-spice/experimental-setup/biasTee 1408 672 R90
SYMATTR InstName U3
SYMBOL current 848 592 R0
SYMATTR InstName I1
SYMATTR Value 18µ
SYMBOL Res 1392 512 R0
SYMATTR InstName R1
SYMATTR Value 50
SYMBOL Res 1536 656 R0
SYMATTR InstName R2
SYMATTR Value 50
SYMBOL Res 992 720 R0
SYMATTR InstName R3
SYMATTR Value 50
SYMBOL Res 960 656 R90
WINDOW 0 0 56 VBottom 2
WINDOW 3 32 56 VTop 2
SYMATTR InstName R4
SYMATTR Value 50
TEXT 240 672 Left 2 !.include .spice-daemon-data/trancmd.txt
TEXT 392 544 Left 2 ;spice-daemon
TEXT 240 624 Left 2 ;.tran 0 {Tstop} 0 {STEPSIZE}
TEXT 336 896 Left 2 !.tran 40u
RECTANGLE Normal 740 736 196 512 2
