Version 4
SHEET 1 1104 680
WIRE 256 144 240 144
WIRE 240 176 240 144
WIRE 240 176 176 176
WIRE 320 176 240 176
WIRE 176 192 176 176
WIRE 320 208 320 176
WIRE 176 304 176 288
WIRE 240 304 176 304
WIRE 320 304 320 272
WIRE 320 304 240 304
WIRE 240 320 240 304
FLAG 240 320 0
FLAG 256 144 Valt
FLAG 112 288 0
SYMBOL Cap 304 208 R0
WINDOW 0 397 -42 Left 2
WINDOW 3 42 32 Left 2
SYMATTR InstName C1
SYMATTR Value 10pF
SYMBOL qnn-spice/SNSPD/snspdWithPhotonPort 176 240 R0
SYMATTR InstName U1
TEXT 448 376 Left 2 !.ic V(source)=vinit V(vnlind)=vinit V(vind)=vinit V(valt)=vinit
TEXT 472 504 Left 2 !.param vinit 100u
TEXT 424 576 Left 2 !.param Cc 10p
TEXT 528 312 Left 2 !.tran 100n
