Version 4
SHEET 1 5832 2076
WIRE 3840 144 3760 144
WIRE 4032 160 4032 128
WIRE 4112 160 4032 160
WIRE 4176 160 4112 160
WIRE 3760 240 3760 224
WIRE 3792 240 3760 240
WIRE 3840 240 3792 240
WIRE 3792 272 3792 240
WIRE 4032 288 4032 256
WIRE 1264 320 1264 288
WIRE 1264 320 1120 320
WIRE 1120 352 1120 320
WIRE 1264 352 1264 320
WIRE 304 368 208 368
WIRE 512 368 512 352
WIRE 512 368 384 368
WIRE 624 368 512 368
WIRE 816 368 704 368
WIRE 848 368 816 368
WIRE 4160 432 4160 400
WIRE 4160 432 4096 432
WIRE 4240 432 4160 432
WIRE 4448 432 4448 400
WIRE 4448 432 4384 432
WIRE 4528 432 4448 432
WIRE 4752 432 4752 400
WIRE 4752 432 4688 432
WIRE 4832 432 4752 432
WIRE 1120 464 1120 432
WIRE 1264 464 1264 432
WIRE 1264 464 1120 464
WIRE 512 496 512 368
WIRE 624 496 512 496
WIRE 816 496 816 368
WIRE 816 496 704 496
WIRE 1264 496 1264 464
WIRE 4096 512 4096 432
WIRE 4096 512 4032 512
WIRE 4240 512 4240 432
WIRE 4384 512 4384 432
WIRE 4528 512 4528 432
WIRE 4688 512 4688 432
WIRE 4832 512 4832 432
WIRE 3712 576 3696 576
WIRE 4096 592 4032 592
WIRE 4096 656 4096 592
WIRE 4160 656 4096 656
WIRE 4240 656 4240 576
WIRE 4240 656 4160 656
WIRE 4384 656 4384 592
WIRE 4448 656 4384 656
WIRE 4528 656 4528 576
WIRE 4528 656 4448 656
WIRE 4688 656 4688 592
WIRE 4752 656 4688 656
WIRE 4832 656 4832 576
WIRE 4832 656 4752 656
WIRE 4160 672 4160 656
WIRE 4448 672 4448 656
WIRE 4752 672 4752 656
WIRE 3712 704 3696 704
WIRE 1104 800 1008 800
WIRE 1264 800 1184 800
WIRE 304 816 304 784
WIRE 304 816 160 816
WIRE 624 816 304 816
WIRE 160 848 160 816
WIRE 304 848 304 816
WIRE 624 848 624 816
WIRE 720 864 672 864
WIRE 720 912 672 912
WIRE 160 960 160 912
WIRE 304 960 304 928
WIRE 304 960 160 960
WIRE 624 960 624 928
WIRE 624 960 304 960
WIRE 304 992 304 960
WIRE 720 992 720 912
FLAG 208 368 drain
FLAG 512 352 N1
FLAG 848 368 source
FLAG 1264 288 N2
FLAG 1264 496 0
FLAG 304 784 N3
FLAG 304 992 0
FLAG 1008 800 gate
FLAG 1264 800 gatereturn
FLAG 720 992 0
FLAG 720 864 N2
FLAG 4256 160 0
FLAG 4112 240 0
FLAG 4032 512 source
FLAG 4032 592 drain
FLAG 4032 288 0
FLAG 3792 272 0
FLAG 3712 704 gatereturn
FLAG 3712 576 gate
FLAG 3696 576 0
FLAG 3696 704 0
FLAG 4160 672 0
FLAG 4160 400 v
FLAG 4448 672 0
FLAG 4448 400 vind
FLAG 4752 672 0
FLAG 4752 400 vnlind
SYMBOL ind 288 384 R270
WINDOW 0 32 56 VTop 2
WINDOW 3 -5 175 VLeft 0
SYMATTR InstName L1
SYMATTR Value Flux=({Lind}/(2.0*cos(0.67*asin(0.6*x/{Isw}))-1))*x
SYMATTR SpiceLine Rser=1e-100
SYMBOL bv 608 368 R270
WINDOW 0 32 56 VTop 2
WINDOW 3 -32 56 VBottom 0
SYMATTR InstName B1
SYMATTR Value V=(v(N3)+abs(v(N3)))/2*i(B1)
SYMBOL Res 720 480 R90
WINDOW 0 0 56 VBottom 2
WINDOW 3 32 56 VTop 2
SYMATTR InstName R1
SYMATTR Value {Rnorm}
SYMBOL bv 1264 336 R0
WINDOW 3 53 197 VLeft 0
SYMATTR Value V=if((abs(i(L1))>Isw-gain*abs(i(R3)))|(abs(v(N1)-v(source))>{Vthresh}),1,0)
SYMATTR InstName B2
SYMBOL Res 1104 336 R0
SYMATTR InstName R2
SYMATTR Value 1
SYMBOL Cap 144 848 R0
WINDOW 3 52 -20 VRight 0
SYMATTR Value {(width)/(2*sheetres*vo)}
SYMATTR InstName C1
SYMBOL sw 624 944 R180
SYMATTR InstName S1
SYMATTR Value Srestore
SYMATTR Value2 OFF
SYMBOL Res 1200 784 R90
WINDOW 0 0 56 VBottom 2
WINDOW 3 32 56 VTop 2
SYMATTR InstName R3
SYMATTR Value 1e-100
SYMBOL current 3760 224 R180
WINDOW 0 24 80 Left 2
WINDOW 3 85 175 VLeft 1
WINDOW 123 0 0 Left 0
WINDOW 39 0 0 Left 0
SYMATTR InstName I1
SYMATTR Value PULSE(0 1 2n 10p 10p 100p 30n 2)
SYMBOL current 4256 160 R90
WINDOW 0 -32 40 VBottom 2
WINDOW 3 31 39 VTop 2
SYMATTR InstName I2
SYMATTR Value PULSE(15µ 25u 10n 0.01n 0.01n 20n)
SYMBOL Res 4096 144 R0
SYMATTR InstName R4
SYMATTR Value 50
SYMBOL bi 304 928 R180
WINDOW 0 24 80 Left 2
WINDOW 3 -488 125 Left 0
SYMATTR InstName B3
SYMATTR Value I=if(v(N2),(psi*(i(L1)/Isw)**2-2)/((sqrt(((psi*(i(L1)/Isw)**2-1)+abs(psi*(i(L1)/Isw)**2-1))/2)+delta)),0)
SYMBOL Cap 4224 512 R0
SYMATTR InstName C2
SYMATTR Value {Cc}
SYMBOL Cap 4512 512 R0
SYMATTR InstName C3
SYMATTR Value {Cc}
SYMBOL ind 4400 608 R180
WINDOW 0 36 80 Left 2
WINDOW 3 36 40 Left 2
SYMATTR InstName L2
SYMATTR Value 100µ
SYMATTR SpiceLine Rser=1e-100
SYMBOL ind 4704 608 R180
WINDOW 0 36 80 Left 2
WINDOW 3 -547 -108 Left 2
SYMATTR InstName L3
SYMATTR Value Flux=({Lind}/(2.0*cos(0.67*asin(0.6*x/{Isw}))-1))*x
SYMATTR SpiceLine Rser=1e-100
SYMBOL Cap 4816 512 R0
SYMATTR InstName C4
SYMATTR Value {Cc}
TEXT 288 296 Left 2 ;flux ~ Isw
TEXT 592 288 Left 2 ;V ~ N3, i(B1)
TEXT 584 552 Left 2 ;hotspot limiter
TEXT 1120 600 Left 2 ;V ~ i(L1), Isw, i(R3), N1
TEXT 328 936 Left 2 ;V ~ N2, i(L1), Isw
TEXT 488 872 Left 2 ;SW ~ N2
TEXT 80 144 Left 4 ;a. Nanowire Series Element
TEXT 32 -168 Left 6 ;SNSPD Dynamic Model
TEXT 480 216 Left 3 ;Hotspot Growth
TEXT 1064 144 Left 3 ;b. State "Boolean"
TEXT 80 688 Left 3 ;c. Hotspot Integrator
TEXT 920 680 Left 3 ;d. Photon Incidence
TEXT 32 -64 Left 5 ;Circuit
TEXT 1664 -64 Left 5 ;Dependency Chain
TEXT 2728 -64 Left 5 ;Params
TEXT 2728 104 Left 4 ;Dimensions
TEXT 2760 176 Left 2 !.PARAM length={width*Lind/inductivity}\n.PARAM squares={length/width}
TEXT 2728 312 Left 4 ;Thermal Parameters
TEXT 2768 376 Left 2 !.PARAM kappa = 0.108\n  * thermal conductivity W/m K\n.PARAM heatCapacity = 4400\n  * heat capacity J/m^3 K\n.PARAM hc = 50k\n  * thermal conductivity of surface W/m^2 K
TEXT 2728 576 Left 4 ;Electrical/Superconducting Parameters
TEXT 2760 640 Left 2 !.PARAM inductivity = {1.38p*sheetRes/Tc}\n  * H/square\n.PARAM  minSquares = {1/sheetRes}\n  * # squares for minimum resistance\n.PARAM Rnorm = {sheetRes*squares}\n  * units of ohms/square\n.PARAM psi={sheetRes*(Jc*thickness)**2/\n+(hc*(Tc-Tsub))}\n  * psi is the Stekly parameter.\n.PARAM vo={sqrt(hc*kappa/thickness)/\n+heatCapacity}\n  * vo is characteristic velocity\n.PARAM Ihs={sqrt(2/psi)*Isw}\n.PARAM Vthresh={minSquares*sheetRes*Ihs}\n.PARAM rho={sheetRes*thickness}
TEXT 2736 1032 Left 4 ;Unitless Parameters
TEXT 2760 1080 Left 2 !.PARAM gain={10}\n  * factor photon signal gets multiplied by\n.PARAM delta={0.005}\n  * a small offset value for avoiding\n  * singularity in hotspot velocity
TEXT 1944 248 Left 3 ;B1
TEXT 1768 800 Left 3 ;S1
TEXT 1736 472 Left 3 ;L1
TEXT 2296 240 Right 3 ;N1
TEXT 2472 792 Right 3 ;N3
TEXT 2504 472 Right 3 ;N2
TEXT 2136 976 Right 3 ;R3
TEXT 3672 -64 Left 5 ;Example
TEXT 4080 936 Left 2 ;.tran 0 10n 0 10f
TEXT 2736 1264 Left 4 ;Source Parameters
TEXT 2768 1320 Left 2 !.PARAM Lind=100n \n.PARAM Isw={Jc*width*thickness*C} \n.PARAM width=100n \n.PARAM thickness=4n\n.PARAM sheetRes=400 \n.PARAM Tc=10.5 \n.PARAM Tsub=2\n.PARAM Jc=50G \n.PARAM C=1\n  *Jc at T=Tsub in units of amps/m2\n  *sheetRes has units of ohms/sq\n  *Tc is critical temp and has units of K\n  *Tsub is substrate temp and has units of K\n  *C is constrition factor
TEXT 2736 1704 Left 4 ;Model Definitions
TEXT 2768 1776 Left 2 !.model Srestore SW(Vt={0.5V} Roff=1m Ron=10G)
TEXT 2776 1816 Left 1 ;Voltage Switch SW model that controls the switch params, set SW1's model def to this
TEXT 1664 1256 Left 5 ;Param Dependency
TEXT 1920 1440 Left 1 ;length
TEXT 2208 1440 Left 1 ;squares
TEXT 1592 1440 Left 3 ;Dimensions:
TEXT 4072 776 Left 2 !.ic V(source)=vinit V(vnlind)=vinit V(vind)=vinit
TEXT 4072 856 Left 2 ;.step param vinit list 0.0001f 1f
TEXT 4072 888 Left 2 !.param Cc 0.1p
TEXT 4072 816 Left 2 !.ic I(L3)=0 v(N2)=0 v(N3)=0 I(L2)=0 I(L1)=0
TEXT 4080 1032 Left 2 !.tran 10000n
TEXT 4064 1096 Left 2 !.param vinit 01f
LINE Normal 16 0 1437 2 1
LINE Normal 1648 4 2573 -2 1
LINE Normal 2716 -4 3545 -10 1
LINE Normal 1968 180 1964 172
LINE Normal 1964 172 1968 180 4
LINE Normal 2028 240 2198 242
LINE Normal 2198 242 2188 236
LINE Normal 2324 288 2436 412
LINE Normal 2436 412 2436 400
LINE Normal 2416 496 1856 768
LINE Normal 1856 768 1864 752
LINE Normal 2476 540 2452 716
LINE Normal 2452 716 2444 700
LINE Normal 1864 800 2362 790
LINE Normal 2362 790 2348 780
LINE Normal 2400 748 2008 308
LINE Normal 2008 308 2028 308
LINE Normal 1844 472 2376 756
LINE Normal 2376 756 2372 744
LINE Normal 1832 456 2396 464
LINE Normal 2396 464 2376 452
LINE Normal 2160 916 2424 528
LINE Normal 2424 528 2408 536
LINE Normal 3656 -12 4257 -14 1
LINE Normal 1648 1320 2573 1314 1
LINE Normal 2012 1440 2158 1438
LINE Normal 2158 1438 2148 1432
RECTANGLE Normal 76 180 984 624 1
RECTANGLE Normal 480 248 836 604 1
RECTANGLE Normal 1060 176 1420 624 1
RECTANGLE Normal 80 720 848 1044 1
RECTANGLE Normal 912 712 1416 876 1
RECTANGLE Normal 1896 1416 1988 1464 2
RECTANGLE Normal 2184 1416 2276 1464 2
CIRCLE Normal 1908 188 2018 298 1
CIRCLE Normal 1732 740 1842 850 1
CIRCLE Normal 1700 416 1810 526 1
CIRCLE Normal 2328 184 2218 294 1
CIRCLE Normal 2504 736 2394 846 1
CIRCLE Normal 2536 412 2426 522 1
CIRCLE Normal 2172 916 2062 1026 1
ARC Normal 2036 224 1968 152 2032 216 1944 168
